# Generated by REPEAT Assigner based on pymatgen
data_DB0-m2_o6_o16_f0_pcu.sym.101
_audit_creation_date              2022-05-24
_audit_creation_method            REPEAT_Assigner
_cell_length_a                    13.594981
_cell_length_b                    14.612917
_cell_length_c                    16.034862
_cell_angle_alpha                 90.008686
_cell_angle_beta                  89.983318
_cell_angle_gamma                 73.621411
_cell_volume                      3056.252454
_symmetry_space_group_name_H-M    P1
_symmetry_Int_Tables_number       1
loop_
    _symmetry_equiv_pos_site_id
    _symmetry_equiv_pos_as_xyz
    1  x,y,z
loop_
    _atom_site_type_symbol
    _atom_site_label
    _atom_site_fract_x
    _atom_site_fract_y
    _atom_site_fract_z
    _atom_type_partial_charge
    O   O1   0.499059  0.423237  0.624810  -0.612650
    O   O2   0.489769  0.582718  0.625436  -0.609174
    C   C1   0.490155  0.503735  0.663930  0.829790
    O   O3   0.648720  0.388875  0.503696  -0.575890
    O   O4   0.641762  0.547461  0.512596  -0.509261
    C   C2   0.693855  0.457294  0.507507  0.616425
    Cu  Cu1  0.500240  0.410193  0.503567  0.964984
    Cu  Cu2  0.492742  0.595073  0.504270  0.931952
    O   O5   0.506878  0.421627  0.382498  -0.632933
    O   O6   0.503222  0.580020  0.383281  -0.645326
    O   O7   0.351022  0.457572  0.497421  -0.570934
    O   O8   0.344328  0.616479  0.501390  -0.586063
    C   C3   0.503584  0.501385  0.344001  0.897350
    C   C4   0.299641  0.548004  0.497421  0.593728
    C   C5   0.034238  0.681255  0.437313  -0.212404
    H   H1   0.176749  0.713559  0.440755  0.128289
    H   H2   0.845119  0.701595  0.396809  0.099343
    H   H3   0.995305  0.749148  0.409438  0.116502
    C   C6   0.188058  0.573401  0.487093  0.029629
    C   C7   0.853738  0.342803  0.548850  -0.068323
    C   C8   0.956856  0.316149  0.564488  -0.134183
    C   C9   0.015158  0.376415  0.546285  -0.161984
    C   C10  0.971770  0.464465  0.508454  0.045920
    C   C11  0.867039  0.489899  0.489622  0.150679
    C   C12  0.029984  0.527864  0.489270  0.049819
    C   C13  0.981717  0.614924  0.452957  0.153425
    C   C14  0.880955  0.635849  0.429312  -0.147782
    C   C15  0.825103  0.573115  0.444956  -0.209382
    C   C16  0.135212  0.507355  0.504489  -0.194641
    C   C17  0.136689  0.661373  0.455430  -0.119059
    C   C18  0.806916  0.430199  0.513391  -0.126631
    H   H4   0.179572  0.440479  0.529668  0.122010
    H   H5   0.809591  0.295362  0.567735  0.115434
    H   H6   0.094560  0.350509  0.563193  0.133633
    H   H7   0.992177  0.248126  0.593654  0.111252
    H   H8   0.748975  0.591199  0.419280  0.143696
    H   H9   0.497319  0.356406  0.927840  0.145578
    C   C19  0.501637  0.419942  0.047234  -0.163447
    H   H10  0.503018  0.355691  0.081183  0.137762
    C   C20  0.502882  0.501550  0.089899  0.235256
    C   C21  0.500775  0.583606  0.046612  -0.174909
    H   H11  0.501481  0.647647  0.080062  0.138695
    C   C22  0.497425  0.584044  0.960659  -0.173796
    H   H12  0.495783  0.648362  0.926715  0.139881
    C   C23  0.496044  0.502469  0.917999  0.253770
    C   C24  0.498286  0.420380  0.961282  -0.189772
    C   C25  0.504733  0.501444  0.179374  -0.061219
    C   C26  0.492944  0.502877  0.828547  -0.084266
    C   C27  0.491057  0.503252  0.753416  -0.254593
    C   C28  0.505084  0.501395  0.254521  -0.291850
    H   H13  0.368547  0.955279  0.421337  0.158611
    C   C29  0.429103  0.069222  0.457165  -0.183853
    H   H14  0.375168  0.121613  0.419703  0.156196
    C   C30  0.501667  0.095672  0.503859  0.252886
    C   C31  0.570311  0.028996  0.551831  -0.295763
    H   H15  0.626541  0.050875  0.588386  0.191251
    C   C32  0.566618  0.935435  0.553345  0.052349
    C   C33  0.493654  0.909040  0.506240  0.128501
    C   C34  0.425240  0.976005  0.458274  -0.146445
    C   C35  0.504560  0.193099  0.503495  0.089898
    C   C36  0.489604  0.811854  0.505327  0.113361
    N   N1   0.487700  0.733188  0.504710  -0.186337
    N   N2   0.505672  0.271985  0.503325  -0.186626
    C   C37  0.641515  0.863811  0.605429  0.345470
    O   O9   0.589812  0.830715  0.668599  -0.541880
    H   H16  0.697524  0.896696  0.634098  -0.032808
    H   H17  0.684032  0.803193  0.565927  -0.049971
    H   H18  0.626197  0.761933  0.673260  0.360830
