# Charges generated by MEPO-ML
data_DB0-m2_o7_o24_f0_nbo
_audit_creation_date              2024-02-09
_audit_creation_method            MEPO-ML
_cell_length_a                    41.421619
_cell_length_b                    35.571468
_cell_length_c                    21.223373
_cell_angle_alpha                 90.000000
_cell_angle_beta                  59.424363
_cell_angle_gamma                 90.000000
_cell_volume                      26923.122863
_symmetry_space_group_name_H-M    P1
_symmetry_Int_Tables_number       1
loop_
    _symmetry_equiv_pos_site_id
    _symmetry_equiv_pos_as_xyz
    1  x,y,z
loop_
    _atom_site_type_symbol
    _atom_site_label
    _atom_site_fract_x
    _atom_site_fract_y
    _atom_site_fract_z
    _atom_type_partial_charge
    Cu  Cu1   0.000000  0.462625  0.000000  1.033264
    Cu  Cu2   0.500000  0.962625  0.000000  1.033264
    Cu  Cu3   0.000000  0.536621  0.000000  1.032230
    Cu  Cu4   0.500000  0.036621  0.000000  1.032230
    Cu  Cu5   0.036926  0.500163  0.463896  1.024237
    Cu  Cu6   0.963074  0.500163  0.536105  1.024238
    Cu  Cu7   0.536926  0.000163  0.463896  1.024237
    Cu  Cu8   0.463074  0.000163  0.536105  1.024238
    Cu  Cu9   0.500093  0.500152  0.561684  1.011850
    Cu  Cu10  0.499907  0.500152  0.438317  1.011848
    Cu  Cu11  0.000093  0.000152  0.561684  1.011850
    Cu  Cu12  0.999907  0.000152  0.438317  1.011848
    H   H1    0.984290  0.561703  0.304886  0.036854
    H   H2    0.015710  0.561703  0.695114  0.036849
    H   H3    0.484290  0.061703  0.304886  0.036854
    H   H4    0.515710  0.061703  0.695114  0.036849
    H   H5    0.939149  0.516117  0.270726  0.035360
    H   H6    0.060851  0.516117  0.729274  0.035364
    H   H7    0.439149  0.016117  0.270726  0.035360
    H   H8    0.560851  0.016117  0.729274  0.035364
    H   H9    0.955854  0.454432  0.333746  0.054015
    H   H10   0.044146  0.454432  0.666254  0.054014
    H   H11   0.455854  0.954432  0.333746  0.054015
    H   H12   0.544146  0.954432  0.666254  0.054014
    H   H13   0.017614  0.437700  0.193741  0.056369
    H   H14   0.982386  0.437700  0.806259  0.056364
    H   H15   0.517614  0.937700  0.193741  0.056369
    H   H16   0.482386  0.937700  0.806259  0.056364
    H   H17   0.062818  0.483346  0.226844  0.056099
    H   H18   0.937182  0.483346  0.773157  0.056098
    H   H19   0.562818  0.983346  0.226844  0.056099
    H   H20   0.437182  0.983346  0.773157  0.056098
    H   H21   0.046033  0.545054  0.164366  0.053875
    H   H22   0.953967  0.545054  0.835635  0.053875
    H   H23   0.546033  0.045054  0.164366  0.053875
    H   H24   0.453967  0.045054  0.835635  0.053875
    H   H25   0.687998  0.499894  0.212285  0.142596
    H   H26   0.312002  0.499894  0.787715  0.142595
    H   H27   0.187998  0.999894  0.212285  0.142596
    H   H28   0.812002  0.999894  0.787715  0.142595
    H   H29   0.619500  0.500022  0.280047  0.114234
    H   H30   0.380500  0.500022  0.719953  0.114234
    H   H31   0.119500  0.000022  0.280047  0.114234
    H   H32   0.880500  0.000022  0.719953  0.114234
    H   H33   0.619818  0.500024  0.481351  0.114263
    H   H34   0.380182  0.500024  0.518649  0.114262
    H   H35   0.119818  0.000024  0.481351  0.114263
    H   H36   0.880182  0.000024  0.518649  0.114262
    H   H37   0.688317  0.499896  0.412495  0.142537
    H   H38   0.311683  0.499896  0.587505  0.142537
    H   H39   0.188317  0.999896  0.412495  0.142537
    H   H40   0.811683  0.999896  0.587505  0.142537
    H   H41   0.811915  0.559515  0.186104  0.138753
    H   H42   0.188085  0.559515  0.813896  0.138754
    H   H43   0.311915  0.059515  0.186104  0.138753
    H   H44   0.688085  0.059515  0.813896  0.138754
    H   H45   0.880408  0.559788  0.117514  0.116623
    H   H46   0.119592  0.559788  0.882487  0.116624
    H   H47   0.380408  0.059788  0.117514  0.116623
    H   H48   0.619592  0.059788  0.882487  0.116624
    H   H49   0.880336  0.439535  0.123102  0.112018
    H   H50   0.119664  0.439535  0.876898  0.112017
    H   H51   0.380336  0.939535  0.123102  0.112018
    H   H52   0.619664  0.939535  0.876898  0.112017
    H   H53   0.811835  0.439916  0.191669  0.136399
    H   H54   0.188165  0.439916  0.808331  0.136400
    H   H55   0.311835  0.939916  0.191669  0.136399
    H   H56   0.688165  0.939916  0.808331  0.136400
    H   H57   0.500127  0.311897  0.600140  0.142235
    H   H58   0.499873  0.311897  0.399860  0.142234
    H   H59   0.000127  0.811897  0.600140  0.142235
    H   H60   0.999873  0.811897  0.399860  0.142234
    H   H61   0.500127  0.380555  0.600715  0.113813
    H   H62   0.499872  0.380555  0.399286  0.113813
    H   H63   0.000127  0.880555  0.600715  0.113813
    H   H64   0.999872  0.880555  0.399286  0.113813
    H   H65   0.940339  0.688385  0.561030  0.139479
    H   H66   0.059661  0.688385  0.438970  0.139479
    H   H67   0.440339  0.188385  0.561030  0.139479
    H   H68   0.559661  0.188385  0.438970  0.139479
    H   H69   0.939996  0.619729  0.561381  0.115676
    H   H70   0.060004  0.619729  0.438619  0.115676
    H   H71   0.439996  0.119729  0.561381  0.115676
    H   H72   0.560004  0.119729  0.438619  0.115676
    H   H73   0.499822  0.688413  0.399912  0.141893
    H   H74   0.500178  0.688413  0.600088  0.141892
    H   H75   0.999822  0.188413  0.399912  0.141893
    H   H76   0.000178  0.188413  0.600088  0.141892
    H   H77   0.499821  0.619755  0.399338  0.114181
    H   H78   0.500179  0.619755  0.600662  0.114182
    H   H79   0.999821  0.119755  0.399338  0.114181
    H   H80   0.000179  0.119755  0.600662  0.114182
    H   H81   0.940373  0.311935  0.555361  0.137241
    H   H82   0.059627  0.311935  0.444639  0.137242
    H   H83   0.440373  0.811935  0.555361  0.137241
    H   H84   0.559627  0.811935  0.444639  0.137242
    H   H85   0.940030  0.380592  0.555677  0.112114
    H   H86   0.059970  0.380592  0.444323  0.112113
    H   H87   0.440030  0.880592  0.555677  0.112114
    H   H88   0.559970  0.880592  0.444323  0.112113
    C   C1    0.926813  0.499635  0.073690  0.731522
    C   C2    0.073187  0.499635  0.926310  0.731520
    C   C3    0.426813  0.999635  0.073690  0.731522
    C   C4    0.573187  0.999635  0.926310  0.731520
    C   C5    0.000673  0.499611  0.120254  0.692285
    C   C6    0.999327  0.499611  0.879746  0.692300
    C   C7    0.500673  0.999611  0.120254  0.692285
    C   C8    0.499327  0.999611  0.879746  0.692300
    C   C9    0.967095  0.508740  0.262261  -0.038048
    C   C10   0.032905  0.508740  0.737739  -0.038068
    C   C11   0.467095  0.008740  0.262261  -0.038048
    C   C12   0.532905  0.008740  0.737739  -0.038068
    C   C13   0.991796  0.533680  0.278340  -0.045969
    C   C14   0.008204  0.533680  0.721660  -0.045947
    C   C15   0.491796  0.033680  0.278340  -0.045969
    C   C16   0.508204  0.033680  0.721660  -0.045947
    C   C17   0.000958  0.499903  0.308933  0.138002
    C   C18   0.999042  0.499903  0.691067  0.137988
    C   C19   0.500958  0.999903  0.308933  0.138002
    C   C20   0.499042  0.999903  0.691067  0.137988
    C   C21   0.976251  0.474943  0.294179  -0.088543
    C   C22   0.023749  0.474943  0.705822  -0.088537
    C   C23   0.476251  0.974943  0.294179  -0.088543
    C   C24   0.523749  0.974943  0.705822  -0.088537
    C   C25   0.010033  0.465826  0.219848  -0.076974
    C   C26   0.989967  0.465826  0.780152  -0.076971
    C   C27   0.510033  0.965826  0.219848  -0.076974
    C   C28   0.489967  0.965826  0.780152  -0.076971
    C   C29   0.034772  0.490799  0.235908  -0.077476
    C   C30   0.965228  0.490799  0.764093  -0.077471
    C   C31   0.534772  0.990799  0.235908  -0.077476
    C   C32   0.465228  0.990799  0.764093  -0.077471
    C   C33   0.025622  0.524560  0.203954  -0.085052
    C   C34   0.974378  0.524560  0.796046  -0.085064
    C   C35   0.525622  0.024560  0.203954  -0.085052
    C   C36   0.474378  0.024560  0.796046  -0.085064
    C   C37   0.000891  0.499614  0.189236  0.123429
    C   C38   0.999108  0.499614  0.810764  0.123419
    C   C39   0.500891  0.999614  0.189236  0.123429
    C   C40   0.499108  0.999614  0.810764  0.123419
    C   C41   0.672957  0.499922  0.271432  -0.213254
    C   C42   0.327042  0.499922  0.728568  -0.213255
    C   C43   0.172957  0.999922  0.271432  -0.213254
    C   C44   0.827042  0.999922  0.728568  -0.213255
    C   C45   0.634182  0.499997  0.310000  -0.053039
    C   C46   0.365817  0.499997  0.690000  -0.053034
    C   C47   0.134182  0.999997  0.310000  -0.053039
    C   C48   0.865817  0.999997  0.690000  -0.053034
    C   C49   0.614557  0.500034  0.385786  -0.089001
    C   C50   0.385443  0.500034  0.614214  -0.089011
    C   C51   0.114557  0.000034  0.385786  -0.089001
    C   C52   0.885443  0.000034  0.614214  -0.089011
    C   C53   0.634360  0.499998  0.422254  -0.053208
    C   C54   0.365640  0.499998  0.577747  -0.053199
    C   C55   0.134360  0.999998  0.422254  -0.053208
    C   C56   0.865640  0.999998  0.577747  -0.053199
    C   C57   0.673136  0.499923  0.383487  -0.213136
    C   C58   0.326864  0.499923  0.616513  -0.213143
    C   C59   0.173136  0.999923  0.383487  -0.213136
    C   C60   0.826864  0.999923  0.616513  -0.213143
    C   C61   0.692568  0.499884  0.307991  0.295259
    C   C62   0.307432  0.499884  0.692009  0.295267
    C   C63   0.192568  0.999884  0.307991  0.295259
    C   C64   0.807432  0.999884  0.692009  0.295267
    C   C65   0.733050  0.499812  0.267613  -0.160048
    C   C66   0.266950  0.499812  0.732388  -0.160052
    C   C67   0.233050  0.999812  0.267613  -0.160048
    C   C68   0.766950  0.999812  0.732388  -0.160051
    C   C69   0.766983  0.499761  0.233743  -0.162227
    C   C70   0.233017  0.499761  0.766257  -0.162222
    C   C71   0.266983  0.999761  0.233743  -0.162227
    C   C72   0.733017  0.999761  0.766257  -0.162222
    C   C73   0.827008  0.533172  0.172218  -0.220883
    C   C74   0.172992  0.533172  0.827783  -0.220881
    C   C75   0.327008  0.033172  0.172218  -0.220883
    C   C76   0.672992  0.033172  0.827783  -0.220881
    C   C77   0.865782  0.533200  0.133396  -0.041468
    C   C78   0.134218  0.533200  0.866604  -0.041468
    C   C79   0.365782  0.033200  0.133396  -0.041468
    C   C80   0.634218  0.033200  0.866604  -0.041468
    C   C81   0.885475  0.499657  0.115201  -0.102147
    C   C82   0.114525  0.499657  0.884799  -0.102144
    C   C83   0.385475  0.999657  0.115201  -0.102147
    C   C84   0.614525  0.999657  0.884799  -0.102144
    C   C85   0.865740  0.466144  0.136513  -0.040815
    C   C86   0.134260  0.466144  0.863487  -0.040815
    C   C87   0.365740  0.966144  0.136513  -0.040815
    C   C88   0.634260  0.966144  0.863487  -0.040815
    C   C89   0.826964  0.466235  0.175332  -0.214307
    C   C90   0.173036  0.466235  0.824669  -0.214307
    C   C91   0.326964  0.966235  0.175332  -0.214307
    C   C92   0.673036  0.966235  0.824669  -0.214307
    C   C93   0.807465  0.499720  0.193303  0.302137
    C   C94   0.192535  0.499720  0.806697  0.302136
    C   C95   0.307465  0.999720  0.193303  0.302137
    C   C96   0.692535  0.999720  0.806697  0.302136
    C   C97   0.000000  0.573358  0.500000  0.712419
    C   C98   0.500000  0.073358  0.500000  0.712419
    C   C99   0.000666  0.500078  0.378420  0.677355
    C   C100  0.999334  0.500078  0.621580  0.677361
    C   C101  0.500666  0.000078  0.378420  0.677355
    C   C102  0.499334  0.000078  0.621580  0.677361
    C   C103  0.000000  0.426967  0.500000  0.734309
    C   C104  0.500000  0.926967  0.500000  0.734309
    C   C105  0.500000  0.573381  0.500000  0.716810
    C   C106  0.000000  0.073381  0.500000  0.716810
    C   C107  0.573217  0.500095  0.427008  0.718268
    C   C108  0.426783  0.500095  0.572992  0.718287
    C   C109  0.073217  0.000095  0.427008  0.718268
    C   C110  0.926783  0.000095  0.572992  0.718287
    C   C111  0.500000  0.426926  0.500000  0.718442
    C   C112  0.000000  0.926926  0.500000  0.718442
    C   C113  0.500071  0.327076  0.556076  -0.216454
    C   C114  0.499929  0.327076  0.443924  -0.216454
    C   C115  0.000071  0.827076  0.556076  -0.216454
    C   C116  0.999929  0.827076  0.443924  -0.216454
    C   C117  0.500071  0.365900  0.556180  -0.051964
    C   C118  0.499929  0.365900  0.443820  -0.051964
    C   C119  0.000071  0.865900  0.556180  -0.051964
    C   C120  0.999929  0.865900  0.443820  -0.051964
    C   C121  0.500000  0.385588  0.500000  -0.091420
    C   C122  0.000000  0.885588  0.500000  -0.091420
    C   C123  0.500000  0.307590  0.500000  0.300700
    C   C124  0.000000  0.807590  0.500000  0.300700
    C   C125  0.500000  0.267117  0.500000  -0.163535
    C   C126  0.000000  0.767117  0.500000  -0.163535
    C   C127  0.000000  0.733165  0.500000  -0.161338
    C   C128  0.500000  0.233165  0.500000  -0.161338
    C   C129  0.966591  0.673206  0.534176  -0.223737
    C   C130  0.033409  0.673206  0.465824  -0.223737
    C   C131  0.466591  0.173206  0.534176  -0.223737
    C   C132  0.533409  0.173206  0.465824  -0.223737
    C   C133  0.966529  0.634382  0.534240  -0.049378
    C   C134  0.033471  0.634382  0.465761  -0.049378
    C   C135  0.466529  0.134382  0.534240  -0.049378
    C   C136  0.533471  0.134382  0.465761  -0.049378
    C   C137  0.000000  0.614694  0.500000  -0.080936
    C   C138  0.500000  0.114694  0.500000  -0.080936
    C   C139  0.000000  0.692692  0.500000  0.301799
    C   C140  0.500000  0.192692  0.500000  0.301799
    C   C141  0.499900  0.673235  0.443953  -0.216244
    C   C142  0.500100  0.673235  0.556047  -0.216243
    C   C143  0.999900  0.173235  0.443953  -0.216244
    C   C144  0.000100  0.173235  0.556047  -0.216243
    C   C145  0.499900  0.634410  0.443849  -0.053188
    C   C146  0.500100  0.634410  0.556151  -0.053189
    C   C147  0.999900  0.134410  0.443849  -0.053188
    C   C148  0.000100  0.134410  0.556151  -0.053189
    C   C149  0.500000  0.614720  0.500000  -0.088579
    C   C150  0.000000  0.114720  0.500000  -0.088579
    C   C151  0.500000  0.692722  0.500000  0.298052
    C   C152  0.000000  0.192722  0.500000  0.298052
    C   C153  0.500000  0.733197  0.500000  -0.159555
    C   C154  0.000000  0.233197  0.500000  -0.159556
    C   C155  0.000000  0.267151  0.500000  -0.162689
    C   C156  0.500000  0.767151  0.500000  -0.162689
    C   C157  0.966610  0.327113  0.531001  -0.218383
    C   C158  0.033389  0.327113  0.468999  -0.218385
    C   C159  0.466610  0.827113  0.531001  -0.218383
    C   C160  0.533389  0.827113  0.468999  -0.218385
    C   C161  0.966548  0.365938  0.531060  -0.040638
    C   C162  0.033451  0.365938  0.468941  -0.040635
    C   C163  0.466548  0.865938  0.531060  -0.040638
    C   C164  0.533451  0.865938  0.468941  -0.040635
    C   C165  0.000000  0.385628  0.500000  -0.103714
    C   C166  0.500000  0.885628  0.500000  -0.103714
    C   C167  0.000000  0.307626  0.500000  0.305519
    C   C168  0.500000  0.807626  0.500000  0.305519
    O   O1    0.945192  0.467598  0.056641  -0.619748
    O   O2    0.054808  0.467598  0.943360  -0.619747
    O   O3    0.445192  0.967598  0.056641  -0.619748
    O   O4    0.554808  0.967598  0.943360  -0.619747
    O   O5    0.945190  0.531661  0.053744  -0.614725
    O   O6    0.054810  0.531661  0.946256  -0.614724
    O   O7    0.445190  0.031661  0.053744  -0.614725
    O   O8    0.554810  0.031661  0.946256  -0.614724
    O   O9    0.001557  0.467494  0.089273  -0.648838
    O   O10   0.998443  0.467494  0.910727  -0.648840
    O   O11   0.501557  0.967494  0.089273  -0.648838
    O   O12   0.498443  0.967494  0.910727  -0.648840
    O   O13   0.999390  0.531738  0.091485  -0.662068
    O   O14   0.000610  0.531738  0.908516  -0.662075
    O   O15   0.499390  0.031738  0.091485  -0.662068
    O   O16   0.500610  0.031738  0.908516  -0.662075
    O   O17   0.031965  0.554989  0.467269  -0.615956
    O   O18   0.968035  0.554989  0.532731  -0.615956
    O   O19   0.531965  0.054989  0.467269  -0.615956
    O   O20   0.468035  0.054989  0.532731  -0.615956
    O   O21   0.032549  0.499021  0.377315  -0.643600
    O   O22   0.967451  0.499021  0.622685  -0.643605
    O   O23   0.532549  0.999021  0.377315  -0.643600
    O   O24   0.467451  0.999021  0.622685  -0.643605
    O   O25   0.968469  0.501213  0.439984  -0.658759
    O   O26   0.031531  0.501213  0.560017  -0.658759
    O   O27   0.468469  0.001213  0.439984  -0.658759
    O   O28   0.531531  0.001213  0.560017  -0.658759
    O   O29   0.031951  0.445334  0.470244  -0.612176
    O   O30   0.968049  0.445334  0.529756  -0.612174
    O   O31   0.531951  0.945334  0.470244  -0.612176
    O   O32   0.468049  0.945334  0.529756  -0.612174
    O   O33   0.500094  0.554997  0.553591  -0.621323
    O   O34   0.499906  0.554997  0.446410  -0.621321
    O   O35   0.000094  0.054997  0.553591  -0.621323
    O   O36   0.999906  0.054997  0.446410  -0.621321
    O   O37   0.554908  0.500118  0.498938  -0.623823
    O   O38   0.445092  0.500118  0.501063  -0.623826
    O   O39   0.054908  0.000118  0.498938  -0.623823
    O   O40   0.945092  0.000118  0.501063  -0.623826
    O   O41   0.554744  0.500108  0.391755  -0.623946
    O   O42   0.445256  0.500108  0.608245  -0.623951
    O   O43   0.054744  0.000108  0.391755  -0.623946
    O   O44   0.945256  0.000108  0.608245  -0.623951
    O   O45   0.500078  0.445308  0.553608  -0.621316
    O   O46   0.499922  0.445308  0.446392  -0.621316
    O   O47   0.000078  0.945308  0.553608  -0.621316
    O   O48   0.999922  0.945308  0.446392  -0.621316
