# Charges generated by MEPO-ML
data_DB0-m24_o19_o19_sra
_audit_creation_date              2023-09-26
_audit_creation_method            MEPO-ML
_cell_length_a                    12.569684
_cell_length_b                    7.191180
_cell_length_c                    3.825000
_cell_angle_alpha                 89.999940
_cell_angle_beta                  90.004039
_cell_angle_gamma                 74.282059
_cell_volume                      332.816583
_symmetry_space_group_name_H-M    P1
_symmetry_Int_Tables_number       1
loop_
    _symmetry_equiv_pos_site_id
    _symmetry_equiv_pos_as_xyz
    1  x,y,z
loop_
    _atom_site_type_symbol
    _atom_site_label
    _atom_site_fract_x
    _atom_site_fract_y
    _atom_site_fract_z
    _atom_type_partial_charge
    V  V1  0.499683  0.500199  0.999888  1.307162
    V  V2  0.499674  0.000172  0.999880  1.310998
    C  C1  0.841701  0.083863  0.999890  -0.190236
    C  C2  0.941287  0.031494  0.999893  0.067577
    C  C3  0.057976  0.968871  0.999895  0.053063
    C  C4  0.157562  0.916499  0.999897  -0.190802
    C  C5  0.723039  0.142703  0.999886  0.763892
    C  C6  0.276224  0.857656  0.999896  0.751805
    O  O1  0.428606  0.283785  0.968460  -0.450090
    O  O2  0.330309  0.673842  0.999866  -0.518095
    O  O3  0.570692  0.716545  0.031304  -0.430637
    O  O4  0.668953  0.326515  0.999916  -0.521868
    O  O5  0.331262  0.988500  0.999919  -0.516028
    O  O6  0.668004  0.011857  0.999855  -0.521731
    F  F1  0.502664  0.514095  0.500937  -0.460180
    F  F2  0.502607  0.983431  0.500932  -0.454831
