# Charges generated by MEPO-ML
data_DB0-m2_o59_nox
_audit_creation_date              2024-02-09
_audit_creation_method            MEPO-ML
_cell_length_a                    40.361158
_cell_length_b                    40.386185
_cell_length_c                    39.695000
_cell_angle_alpha                 119.490217
_cell_angle_beta                  119.412630
_cell_angle_gamma                 76.048294
_cell_volume                      49061.589141
_symmetry_space_group_name_H-M    P1
_symmetry_Int_Tables_number       1
loop_
    _symmetry_equiv_pos_site_id
    _symmetry_equiv_pos_as_xyz
    1  x,y,z
loop_
    _atom_site_type_symbol
    _atom_site_label
    _atom_site_fract_x
    _atom_site_fract_y
    _atom_site_fract_z
    _atom_type_partial_charge
    Cu  Cu1   0.776909  0.537722  0.602762  1.007664
    Cu  Cu2   0.776743  0.462934  0.565257  1.007655
    Cu  Cu3   0.314266  0.000367  0.601456  1.007680
    Cu  Cu4   0.239481  0.000185  0.563966  1.007690
    H   H1    0.099360  0.363096  0.385965  0.108680
    H   H2    0.071390  0.681616  0.622922  0.113139
    H   H3    0.056857  0.578957  0.481128  0.131988
    H   H4    0.029995  0.627899  0.587935  0.125549
    H   H5    0.215738  0.083827  0.670262  0.128946
    H   H6    0.337405  0.085120  0.731304  0.129210
    H   H7    0.215327  0.130585  0.738023  0.122682
    H   H8    0.337197  0.131961  0.799253  0.122287
    H   H9    0.458074  0.294804  0.019665  0.113150
    H   H10   0.409709  0.320760  0.104368  0.113349
    H   H11   0.404360  0.253399  0.959551  0.125559
    H   H12   0.064588  0.315666  0.439416  0.122830
    H   H13   0.355442  0.280344  0.044317  0.131995
    H   H14   0.092181  0.288014  0.830437  0.122866
    H   H15   0.139616  0.322830  0.966114  0.108688
    H   H16   0.144519  0.245179  0.826908  0.116635
    H   H17   0.193694  0.281865  0.962800  0.118325
    H   H18   0.337791  0.083032  0.577953  0.128174
    H   H19   0.216121  0.082922  0.515908  0.128490
    H   H20   0.338556  0.127946  0.554989  0.119105
    H   H21   0.216679  0.128088  0.492749  0.120068
    H   H22   0.086648  0.262009  0.398023  0.116106
    H   H23   0.058415  0.417188  0.402425  0.118374
    H   H24   0.156367  0.346739  0.428192  0.128047
    H   H25   0.142168  0.222237  0.413369  0.111335
    H   H26   0.210498  0.306294  0.440307  0.108466
    H   H27   0.465109  0.285552  0.621522  0.112192
    H   H28   0.419505  0.313742  0.516446  0.112139
    H   H29   0.410286  0.245087  0.585015  0.125064
    H   H30   0.364180  0.274304  0.480359  0.133240
    H   H31   0.095548  0.705414  0.543327  0.113125
    H   H32   0.143596  0.680095  0.650751  0.113201
    H   H33   0.149183  0.746939  0.578368  0.125577
    H   H34   0.021772  0.368018  0.452480  0.116682
    H   H35   0.197780  0.720625  0.685416  0.131974
    H   H36   0.413571  0.678253  0.780776  0.108695
    H   H37   0.461272  0.712847  0.727411  0.122895
    H   H38   0.359518  0.719188  0.764290  0.118268
    H   H39   0.408947  0.755652  0.714310  0.116617
    H   H40   0.216208  0.915398  0.585674  0.129160
    H   H41   0.337872  0.916755  0.647692  0.128880
    H   H42   0.216333  0.868590  0.606915  0.122286
    H   H43   0.338201  0.870033  0.669033  0.122707
    H   H44   0.491919  0.312062  0.545648  0.112212
    H   H45   0.860412  0.439226  0.518932  0.128913
    H   H46   0.463188  0.357955  0.650478  0.112314
    H   H47   0.532225  0.366990  0.582102  0.124979
    H   H48   0.502471  0.413384  0.686513  0.133153
    H   H49   0.429964  0.621188  0.738527  0.128055
    H   H50   0.514844  0.690831  0.768844  0.116088
    H   H51   0.470417  0.567029  0.726425  0.108519
    H   H52   0.554630  0.635290  0.753524  0.111350
    H   H53   0.694112  0.439491  0.588934  0.128211
    H   H54   0.694119  0.561181  0.650927  0.128541
    H   H55   0.649165  0.438779  0.611945  0.119091
    H   H56   0.861669  0.560910  0.580866  0.129193
    H   H57   0.648918  0.560677  0.674132  0.120033
    H   H58   0.454887  0.637062  0.200614  0.108668
    H   H59   0.489454  0.684783  0.336287  0.122884
    H   H60   0.495798  0.582992  0.203982  0.118304
    H   H61   0.532237  0.632442  0.339869  0.116648
    H   H62   0.693335  0.561338  0.496516  0.128875
    H   H63   0.691966  0.439656  0.435469  0.129146
    H   H64   0.646609  0.561675  0.428783  0.122698
    H   H65   0.645155  0.439789  0.367548  0.122270
    H   H66   0.456558  0.367029  0.062504  0.113203
    H   H67   0.907182  0.438829  0.497557  0.122685
    H   H68   0.481897  0.319030  0.147247  0.113146
    H   H69   0.497108  0.421215  0.122539  0.132019
    H   H70   0.523442  0.372665  0.207349  0.125601
    H   H71   0.859454  0.439564  0.672704  0.128532
    H   H72   0.859566  0.561251  0.732456  0.128209
    H   H73   0.904640  0.440130  0.741592  0.120060
    H   H74   0.904497  0.562025  0.801099  0.119096
    H   H75   0.062244  0.688582  0.018611  0.112206
    H   H76   0.090435  0.643075  0.106356  0.112134
    H   H77   0.021763  0.633750  0.959857  0.125058
    H   H78   0.908524  0.560717  0.559588  0.122266
    H   H79   0.050983  0.587740  0.047706  0.133290
    H   H80   0.038538  0.310107  0.840247  0.116129
    H   H81   0.123285  0.379838  0.964525  0.128044
    H   H82   0.998791  0.365643  0.840643  0.111285
    H   H83   0.082866  0.433988  0.966091  0.108396
    H   H84   0.216095  0.917582  0.434194  0.128216
    H   H85   0.337768  0.917610  0.493964  0.128526
    H   H86   0.215411  0.872671  0.365518  0.119063
    H   H87   0.337292  0.872442  0.425045  0.120023
    H   H88   0.467457  0.738361  0.326420  0.116094
    H   H89   0.097262  0.633224  0.515740  0.113307
    H   H90   0.397828  0.653477  0.202172  0.128057
    H   H91   0.411927  0.778163  0.325973  0.111321
    H   H92   0.343684  0.693946  0.200558  0.108474
    H   H93   0.088739  0.715509  0.147836  0.112246
    H   H94   0.134647  0.686662  0.060156  0.112350
    H   H95   0.143656  0.755827  0.206611  0.124922
    H   H96   0.190069  0.725959  0.118831  0.133061
    C   C1    0.058844  0.394395  0.409486  -0.094903
    C   C2    0.871567  0.533948  0.562639  -0.116681
    C   C3    0.277496  0.837619  0.652753  0.743161
    C   C4    0.518100  0.364749  0.598021  -0.074562
    C   C5    0.495103  0.333765  0.577192  -0.174790
    C   C6    0.475200  0.331210  0.595837  0.096350
    C   C7    0.479312  0.359196  0.635996  -0.106231
    C   C8    0.501221  0.390780  0.656149  -0.141071
    C   C9    0.520140  0.393985  0.636875  -0.036808
    C   C10   0.481073  0.594151  0.736688  -0.050368
    C   C11   0.457969  0.625459  0.744168  -0.171426
    C   C12   0.469104  0.660409  0.754576  0.111478
    C   C13   0.898257  0.533802  0.550475  -0.079010
    C   C14   0.504808  0.663781  0.759655  -0.186715
    C   C15   0.527685  0.632199  0.751327  -0.038388
    C   C16   0.515427  0.596993  0.738599  -0.062328
    C   C17   0.658710  0.465942  0.620795  -0.073220
    C   C18   0.684318  0.466293  0.607552  -0.124476
    C   C19   0.697251  0.500375  0.618160  -0.006630
    C   C20   0.684287  0.534171  0.642142  -0.119224
    C   C21   0.658623  0.533858  0.655430  -0.076665
    C   C22   0.645729  0.499709  0.644862  -0.040403
    C   C23   0.539152  0.496063  0.691068  1.045768
    C   C24   0.911334  0.499758  0.526944  -0.034567
    C   C25   0.538424  0.429874  0.654935  0.755382
    C   C26   0.578993  0.464501  0.657739  1.096418
    C   C27   0.578417  0.530714  0.692172  1.058717
    C   C28   0.536035  0.562288  0.722328  0.716861
    C   C29   0.618099  0.499025  0.658337  0.744527
    C   C30   0.495335  0.605845  0.233400  -0.094974
    C   C31   0.471754  0.636511  0.231495  -0.146324
    C   C32   0.468399  0.664877  0.268034  0.081025
    C   C33   0.491830  0.663813  0.307220  -0.158227
    C   C34   0.516175  0.633659  0.309282  -0.077832
    C   C35   0.059072  0.601816  0.511782  -0.134173
    C   C36   0.516765  0.603729  0.272089  -0.043600
    C   C37   0.656245  0.534626  0.429718  -0.078331
    C   C38   0.682868  0.534477  0.468385  -0.116088
    C   C39   0.695980  0.500481  0.470865  -0.008253
    C   C40   0.682101  0.466605  0.434320  -0.116638
    C   C41   0.655435  0.466717  0.395622  -0.079027
    C   C42   0.642405  0.500743  0.393072  -0.034577
    C   C43   0.494746  0.398455  0.128141  -0.134835
    C   C44   0.472075  0.367582  0.094027  -0.112662
    C   C45   0.466715  0.339308  0.100833  0.100559
    C   C46   0.081659  0.632734  0.531158  -0.113135
    C   C47   0.485959  0.340980  0.141539  -0.176806
    C   C48   0.509703  0.371222  0.175450  -0.068113
    C   C49   0.513227  0.400667  0.169100  -0.044987
    C   C50   0.575752  0.534497  0.312040  1.115272
    C   C51   0.535759  0.568170  0.272867  0.744058
    C   C52   0.536481  0.501878  0.238804  1.063541
    C   C53   0.574146  0.468317  0.278737  1.112208
    C   C54   0.614184  0.500965  0.351926  0.743197
    C   C55   0.532857  0.435722  0.206056  0.779766
    C   C56   0.894962  0.466935  0.740018  -0.076654
    C   C57   0.086829  0.661148  0.571517  0.100644
    C   C58   0.869307  0.466587  0.700767  -0.119129
    C   C59   0.856374  0.500364  0.697635  -0.006703
    C   C60   0.869333  0.534463  0.734049  -0.124434
    C   C61   0.894935  0.534849  0.773237  -0.073277
    C   C62   0.907882  0.501101  0.776499  -0.040335
    C   C63   0.035804  0.636066  0.992155  -0.074878
    C   C64   0.058902  0.666991  0.025291  -0.174615
    C   C65   0.078704  0.669621  0.066407  0.096055
    C   C66   0.074392  0.641778  0.074499  -0.105629
    C   C67   0.052386  0.610246  0.041175  -0.141879
    C   C68   0.067478  0.659557  0.591266  -0.177060
    C   C69   0.033567  0.606960  0.999765  -0.036487
    C   C70   0.025694  0.368755  0.868505  -0.037966
    C   C71   0.048551  0.337176  0.868152  -0.186897
    C   C72   0.084211  0.340572  0.902181  0.111454
    C   C73   0.095313  0.375547  0.937864  -0.171394
    C   C74   0.072228  0.406852  0.938563  -0.050122
    C   C75   0.037927  0.403983  0.903250  -0.062568
    C   C76   0.974622  0.536408  0.891295  1.096657
    C   C77   0.935496  0.501827  0.818278  0.744454
    C   C78   0.975083  0.470198  0.860101  1.058719
    C   C79   0.043820  0.629265  0.571242  -0.067727
    C   C80   0.014349  0.504907  0.932904  1.044910
    C   C81   0.015208  0.571083  0.963670  0.755309
    C   C82   0.017368  0.438679  0.901067  0.716627
    C   C83   0.276719  0.052331  0.654946  0.693303
    C   C84   0.276764  0.051868  0.561882  0.690726
    C   C85   0.277068  0.948695  0.510356  0.690586
    C   C86   0.276948  0.948213  0.602911  0.693539
    C   C87   0.242565  0.882212  0.393391  -0.073140
    C   C88   0.242900  0.907800  0.432598  -0.124670
    C   C89   0.276969  0.920729  0.469026  -0.006527
    C   C90   0.040486  0.599690  0.532015  -0.045651
    C   C91   0.310768  0.907780  0.465890  -0.119245
    C   C92   0.310471  0.882136  0.426621  -0.076707
    C   C93   0.276334  0.869247  0.390125  -0.040400
    C   C94   0.408838  0.751214  0.298129  -0.038287
    C   C95   0.440413  0.728327  0.298511  -0.186738
    C   C96   0.437041  0.692617  0.264506  0.111484
    C   C97   0.402100  0.681486  0.228815  -0.171466
    C   C98   0.370800  0.704600  0.228086  -0.050256
    C   C99   0.373640  0.738960  0.263377  -0.062431
    C   C100  0.141423  0.741675  0.174325  -0.074424
    C   C101  0.978157  0.465898  0.478883  1.115030
    C   C102  0.110444  0.718671  0.141175  -0.174858
    C   C103  0.107896  0.698731  0.100072  0.096373
    C   C104  0.135884  0.702814  0.092004  -0.106501
    C   C105  0.167463  0.724732  0.125343  -0.140577
    C   C106  0.170661  0.743686  0.166744  -0.037035
    C   C107  0.307361  0.801960  0.306506  1.058370
    C   C108  0.275664  0.841634  0.348331  0.744537
    C   C109  0.241157  0.802544  0.275277  1.096238
    C   C110  0.272724  0.762702  0.233672  1.045579
    C   C111  0.338939  0.759576  0.265543  0.716810
    C   C112  0.082444  0.363716  0.400533  -0.146379
    C   C113  0.018284  0.432163  0.446121  0.743971
    C   C114  0.206544  0.761978  0.202865  0.755329
    C   C115  0.017445  0.498450  0.477484  1.064408
    C   C116  0.979633  0.532080  0.513218  1.111859
    C   C117  0.939593  0.499494  0.513790  0.743204
    C   C118  0.020924  0.564623  0.514360  0.780013
    C   C119  0.242388  0.120925  0.737081  -0.078281
    C   C120  0.242579  0.094282  0.698399  -0.116218
    C   C121  0.276593  0.081143  0.695909  -0.008065
    C   C122  0.310443  0.095007  0.732461  -0.116688
    C   C123  0.310289  0.121689  0.771176  -0.078966
    C   C124  0.085748  0.335423  0.412096  0.080993
    C   C125  0.276246  0.134752  0.773733  -0.034429
    C   C126  0.405729  0.267245  0.991441  -0.067678
    C   C127  0.436021  0.290908  0.025360  -0.177131
    C   C128  0.437618  0.310285  0.066059  0.100720
    C   C129  0.409211  0.305137  0.072850  -0.113345
    C   C130  0.378294  0.282543  0.038726  -0.133952
    C   C131  0.376163  0.263931  0.997773  -0.045777
    C   C132  0.143241  0.261312  0.857487  -0.078021
    C   C133  0.113085  0.285685  0.859517  -0.158045
    C   C134  0.111943  0.309197  0.898686  0.081063
    C   C135  0.062254  0.336572  0.428914  -0.157905
    C   C136  0.140232  0.305899  0.935244  -0.146476
    C   C137  0.170902  0.282289  0.933370  -0.094746
    C   C138  0.173097  0.260772  0.894695  -0.043402
    C   C139  0.308560  0.203053  0.888100  1.111768
    C   C140  0.275978  0.163008  0.814889  0.743082
    C   C141  0.242387  0.201572  0.854772  1.114958
    C   C142  0.274937  0.240872  0.928024  1.064320
    C   C143  0.341100  0.244358  0.960800  0.780078
    C   C144  0.208659  0.241707  0.893935  0.743991
    C   C145  0.724782  0.500400  0.511809  0.693548
    C   C146  0.037891  0.366737  0.436745  -0.078205
    C   C147  0.828889  0.500202  0.563713  0.693409
    C   C148  0.828400  0.500213  0.656326  0.690733
    C   C149  0.725233  0.500491  0.604932  0.690683
    C   C150  0.311386  0.118388  0.546120  -0.073247
    C   C151  0.311004  0.092797  0.559335  -0.124458
    C   C152  0.276913  0.079842  0.548698  -0.006685
    C   C153  0.243138  0.092771  0.524717  -0.119126
    C   C154  0.243482  0.118415  0.511455  -0.076670
    C   C155  0.277641  0.131328  0.522048  -0.040323
    C   C156  0.145279  0.249142  0.415525  -0.038136
    C   C157  0.037344  0.396595  0.428853  -0.043205
    C   C158  0.113710  0.272014  0.407184  -0.186790
    C   C159  0.117108  0.307676  0.412217  0.111387
    C   C160  0.152073  0.318766  0.422587  -0.171347
    C   C161  0.183368  0.295665  0.430077  -0.050255
    C   C162  0.180498  0.261362  0.428217  -0.062507
    C   C163  0.412578  0.259123  0.569057  -0.074807
    C   C164  0.443499  0.282212  0.589915  -0.174622
    C   C165  0.446100  0.302013  0.571216  0.095958
    C   C166  0.418231  0.297702  0.530975  -0.105677
    C   C167  0.386705  0.275703  0.510790  -0.141695
    C   C168  0.897512  0.465891  0.515895  -0.078298
    C   C169  0.383446  0.256891  0.530116  -0.036659
    C   C170  0.246716  0.198504  0.474709  1.058711
    C   C171  0.278357  0.158924  0.508584  0.744533
    C   C172  0.312919  0.198007  0.509203  1.096602
    C   C173  0.281405  0.237729  0.475814  1.044966
    C   C174  0.215188  0.240786  0.444508  0.716654
    C   C175  0.347575  0.238553  0.512018  0.755265
    C   C176  0.147750  0.733209  0.595098  -0.068089
    C   C177  0.117509  0.709477  0.575044  -0.176803
    C   C178  0.115850  0.690242  0.594848  0.100450
    C   C179  0.870861  0.466075  0.528104  -0.116179
    C   C180  0.144138  0.695604  0.635286  -0.112583
    C   C181  0.175010  0.718264  0.654695  -0.134838
    C   C182  0.177209  0.736732  0.634412  -0.045040
    C   C183  0.382362  0.718725  0.757257  -0.094750
    C   C184  0.413018  0.695131  0.766224  -0.146465
    C   C185  0.441374  0.691777  0.754690  0.081124
    C   C186  0.440310  0.715222  0.737889  -0.158284
    C   C187  0.410165  0.739579  0.730039  -0.077711
    C   C188  0.380245  0.740169  0.737897  -0.043748
    C   C189  0.243258  0.878866  0.616052  -0.079041
    C   C190  0.857708  0.500088  0.551460  -0.008169
    C   C191  0.243151  0.905530  0.603909  -0.116614
    C   C192  0.277025  0.919406  0.615124  -0.008254
    C   C193  0.311013  0.906291  0.638491  -0.116033
    C   C194  0.311158  0.879669  0.650681  -0.078351
    C   C195  0.277277  0.865834  0.639601  -0.034530
    C   C196  0.278413  0.759935  0.689107  1.063467
    C   C197  0.212263  0.756343  0.652115  0.779733
    C   C198  0.244854  0.797606  0.653285  1.112151
    C   C199  0.311024  0.799181  0.687733  1.115134
    C   C200  0.344694  0.759180  0.720576  0.744043
    N   N1    0.991961  0.432624  0.457790  -0.842820
    N   N2    0.242745  0.175606  0.817120  -0.816946
    N   N3    0.275306  0.214903  0.890388  -0.775396
    N   N4    0.307807  0.255483  0.963203  -0.794706
    N   N5    0.209119  0.215377  0.856397  -0.842730
    N   N6    0.241656  0.254247  0.929784  -0.773279
    N   N7    0.245729  0.172377  0.485881  -0.805632
    N   N8    0.214137  0.213493  0.454097  -0.781552
    N   N9    0.311878  0.171978  0.520354  -0.808904
    N   N10   0.280347  0.211126  0.486197  -0.747814
    N   N11   0.248917  0.252710  0.455351  -0.792712
    N   N12   0.952194  0.466257  0.490923  -0.817011
    N   N13   0.346492  0.212067  0.522620  -0.855577
    N   N14   0.314962  0.251307  0.488556  -0.777369
    N   N15   0.245530  0.745308  0.676761  -0.793881
    N   N16   0.311674  0.746634  0.710841  -0.772834
    N   N17   0.211986  0.782444  0.640262  -0.860536
    N   N18   0.278084  0.785837  0.677049  -0.775063
    N   N19   0.344277  0.785447  0.708888  -0.842903
    N   N20   0.244570  0.823544  0.641255  -0.818620
    N   N21   0.310708  0.825092  0.675680  -0.817122
    N   N22   0.525594  0.462510  0.678350  -0.777998
    N   N23   0.030819  0.465163  0.455812  -0.773367
    N   N24   0.524114  0.528569  0.711498  -0.793185
    N   N25   0.564960  0.430932  0.644353  -0.855185
    N   N26   0.565807  0.497094  0.680705  -0.748133
    N   N27   0.563376  0.563310  0.712756  -0.781648
    N   N28   0.605066  0.465513  0.646595  -0.809011
    N   N29   0.604587  0.531673  0.681009  -0.805596
    N   N30   0.562031  0.567754  0.310406  -0.843010
    N   N31   0.601669  0.534181  0.349687  -0.817157
    N   N32   0.523194  0.535144  0.237033  -0.772793
    N   N33   0.562390  0.501551  0.276437  -0.775185
    N   N34   0.991483  0.498821  0.489521  -0.775489
    N   N35   0.600091  0.468035  0.316422  -0.818630
    N   N36   0.521835  0.468991  0.203641  -0.793943
    N   N37   0.558966  0.435447  0.243732  -0.860612
    N   N38   0.948576  0.535356  0.853073  -0.808855
    N   N39   0.988706  0.569989  0.925500  -0.855705
    N   N40   0.948940  0.469200  0.821814  -0.805659
    N   N41   0.987731  0.503838  0.894860  -0.747863
    N   N42   0.027952  0.538473  0.967286  -0.777457
    N   N43   0.990061  0.437617  0.863132  -0.781562
    N   N44   0.029317  0.472419  0.935869  -0.792608
    N   N45   0.953642  0.532406  0.525237  -0.818529
    N   N46   0.308311  0.828123  0.344805  -0.805439
    N   N47   0.339954  0.786914  0.303485  -0.781406
    N   N48   0.242161  0.828609  0.313510  -0.808920
    N   N49   0.273748  0.789355  0.271726  -0.747846
    N   N50   0.305229  0.747660  0.230719  -0.793224
    N   N51   0.207596  0.788514  0.241045  -0.855216
    N   N52   0.239179  0.749145  0.199264  -0.777911
    N   N53   0.032047  0.531324  0.489784  -0.794618
    N   N54   0.994764  0.564939  0.526190  -0.860166
    N   N55   0.308885  0.177061  0.850410  -0.818409
    N   N56   0.341413  0.218191  0.923121  -0.860215
    O   O1    0.737867  0.532812  0.546208  -0.608925
    O   O2    0.244331  0.039233  0.620549  -0.608853
    O   O3    0.309184  0.039123  0.583539  -0.604074
    O   O4    0.244322  0.038986  0.550961  -0.604011
    O   O5    0.309488  0.961572  0.544773  -0.604007
    O   O6    0.244624  0.961437  0.512342  -0.604038
    O   O7    0.309358  0.961311  0.614037  -0.608963
    O   O8    0.244501  0.961122  0.581518  -0.609380
    O   O9    0.737697  0.467945  0.513649  -0.609350
    O   O10   0.815969  0.532671  0.585134  -0.609256
    O   O11   0.815800  0.467803  0.552608  -0.608871
    O   O12   0.815648  0.532640  0.654356  -0.604137
    O   O13   0.815534  0.467766  0.621910  -0.604020
    O   O14   0.738103  0.532924  0.615834  -0.604028
    O   O15   0.737990  0.468050  0.583247  -0.604086
    O   O16   0.309189  0.039426  0.653087  -0.609226
